/batch
/config,noeldb,1     ! force off writing results to database
*get,_wallstrt,active,,time,wall
! ANSYS input file written by Workbench version 2025 R2
! File used for geometry attach: C:\Users\admin\Desktop\LIDIX\ansys\układ_pojedynczy_polimer_files\dp0\Geom\DM\Geom.agdb
/title,uk_ad_pojedynczy_ceramika--Harmonic Response (C5)
! ****** Begin Custom Load Command Snippet ******
/COM, ACT Extensions:
/COM,     LSDYNA, 2025.2
/COM,     5f463412-bd3e-484b-87e7-cbc0a665e474, wbex
/COM,/COM,     ANSYSMotion, 2025.2
/COM,     20180725-3f81-49eb-9f31-41364844c769, wbex
/COM,
! ****** End   Custom Load Command Snippet ******
*DIM,_wb_ProjectScratch_dir,string,248
_wb_ProjectScratch_dir(1) = 'C:\Users\admin\Desktop\LIDIX\ansys\_ProjectScratch\Scr3102\'

/com,--- Data in consistent MKS units. See Solving Units in the help system for more information.
/units,MKS
/nopr
/wb,file,start              !  signify a WB generated input file
/prep7
! Turn off shape checking because checks already performed inside WB mesher.
! See help system for more information.
SHPP,OFF,,NOWARN
/nolist
etcon,set             ! allow ANSYS to choose best KEYOP's for 180x elements, resets any applicable keyopt to MAPDL defaults
/com,*********** Send User Defined Coordinate System(s) ***********
csys,0
/com,*********** Nodes for the whole assembly ***********
nblock,3,,3377
(1i9,3e20.9e3)
        1     1.959559928E-02     3.000000000E-03     5.719483357E-02
        2     2.132987053E-02     3.000000000E-03     3.917315028E-02
        3     1.540090485E-02     3.000000000E-03     3.696698300E-02
        4     1.246538243E-02     3.000000000E-03     3.184332556E-02
        5     1.201852456E-02     3.000000000E-03     2.624352891E-02
        6     1.484095764E-02     3.000000000E-03     2.285749376E-02
        7     2.062057742E-02     3.000000000E-03     2.164597396E-02
        8     2.497516128E-02     3.000000000E-03     2.378420261E-02
        9     2.826059825E-02     3.000000000E-03     2.878576337E-02
       10     2.787662250E-02     3.000000000E-03     3.347468619E-02
       11     2.377625703E-02     3.000000000E-03     3.781133250E-02
       12     2.561452681E-02     3.000000000E-03     6.000665372E-02
       13     2.760076259E-02     3.000000000E-03     6.552722886E-02
       14     2.708527654E-02     3.000000000E-03     7.151009487E-02
       15     2.409462888E-02     3.000000000E-03     7.477310426E-02
       16     1.819361039E-02     3.000000000E-03     7.479253603E-02
       17     1.279711902E-02     3.000000000E-03     7.336946540E-02
       18     1.154078076E-02     3.000000000E-03     6.757811614E-02
       19     1.268735653E-02     3.000000000E-03     6.274167695E-02
       20     1.487428238E-02     3.000000000E-03     6.062156232E-02
! ... 3051 like lines cut
/wb,elem,start            !  set before creation of elements
/com,*********** Elements for Body 1 'piezo' ***********
et,1,186
keyo,1,2,1          ! set full integration on SOLID186
MAT,1 $ TYPE,1 $ REAL,1 $ SECNUM,1 $ ESYS,0
eblock,11,COMPACT,,93
(11i9)
        1       18       39       19       33      119       98      118      104      320      326
      325      319      557      556      573      574      322      398      327      382
        2       17       40       60       41      120       97       77       96      315      400
      403      316      554      488      487      550      317      401      448      404
        3       16       41       60       32      121       96       77      105      311      403
      377      310      551      487      490      575      313      404      448      378
        4       15       42       37       65      122       95      100       72      305      392
      393      307      548      546      468      470      308      406      395      454
        5       16       32       37       42      121      105      100       95      310      376
      392      312      575      563      546      547      313      378      395      406
        6       14       43       15       65      123       94      122       72      300      306
      307      302      544      543      470      471      303      408      308      454
        7       21       47       59       68      116       90       78       69      335      417
      446      336      530      491      458      461      337      418      447      457
        8        1       47       21       38      136       90      116       99      238      335
      334      237      531      530      559      561      239      418      337      396
        9       12       59       47       46      125       78       90       91      292      417
      414      291      493      491      529      533      293      447      418      415
       10       31       65       37       67      106       72      100       70      372      393
      394      373      469      468      462      464      374      454      395      456
! ... 167 like lines cut
secnum,1    ! reset the section ID to default
! Material Id = {9A37691C-5B68-481B-B90F-0269A15B947B}
/com,*********** Elements for Body 2 'belka' ***********
et,2,186
keyo,2,2,1          ! set full integration on SOLID186
MAT,2 $ TYPE,2 $ REAL,2 $ SECNUM,2 $ ESYS,0
eblock,11,COMPACT,,152
(11i9)
       94      900     1107     1108     1109      901     1054     1053     1052     1536     1950
     1951     1537     1541     1868     1866     1540     1535     1871     1869     1867
       95      882      900     1109     1110      919      901     1052     1051     1480     1537
     1952     1482     1539     1540     1864     1595     1481     1535     1867     1865
       96      864      882     1110     1111      937      919     1051     1050     1425     1482
     1953     1427     1594     1595     1862     1632     1426     1481     1865     1863
       97      846      864     1111     1112      955      937     1050     1049     1370     1427
     1954     1372     1631     1632     1860     1669     1371     1426     1863     1861
       98      828      846     1112     1113      973      955     1049     1048     1315     1372
     1955     1317     1668     1669     1858     1706     1316     1371     1861     1859
       99      810      828     1113     1114      991      973     1048     1047     1260     1317
     1956     1262     1705     1706     1856     1743     1261     1316     1859     1857
      100      792      810     1114     1115     1009      991     1047     1046     1204     1262
     1957     1206     1742     1743     1854     1780     1205     1261     1857     1855
      101      792     1115     1116     1117     1009     1046     1045     1044     1206     1958
     1959     1207     1780     1852     1850     1779     1205     1855     1853     1851
      102      899     1106     1107      900      902     1055     1054      901     1534     1949
     1536     1532     1544     1870     1541     1538     1533     1873     1871     1535
      103      881      899      900      882      920      902      901      919     1478     1532
     1480     1477     1543     1538     1539     1593     1479     1533     1535     1481
! ... 285 like lines cut
secnum,1    ! reset the section ID to default
! Material Id = {FE349030-BFAC-459A-976A-4BDCEAEF9A26}
/com,*********** Elements for Body 3 'masa' ***********
et,3,186
keyo,3,2,1          ! set full integration on SOLID186
MAT,3 $ TYPE,3 $ REAL,3 $ SECNUM,3 $ ESYS,0
eblock,11,COMPACT,,180
(11i9)
      246     1977     2251     2239     2226     2108     2263     2238     2237     2294     2992
     2972     2293     2729     2990     2988     2728     2292     3026     2989     2971
      247     1977     2226     2239     2251     1978     2230     2240     2262     2293     2972
     2992     2294     2298     2982     2993     2299     2289     2970     2991     3025
      248     1978     2230     2240     2262     2109     2170     2169     2168     2298     2982
     2993     2299     2733     2866     2864     2732     2297     2869     2867     2865
      249     1977     1985     2250     2251     2108     2104     2264     2263     2291     2331
     3022     2294     2719     2720     3038     2729     2292     2330     3024     3026
      250     1977     2251     2250     1985     1978     2262     2261     1986     2294     3022
     2331     2291     2299     3037     2335     2296     2289     3025     3023     2327
      251     1978     2262     2261     1986     2109     2168     2167     2113     2299     3037
     2335     2296     2732     2862     2745     2731     2297     2865     2863     2334
      252     1985     1993     2249     2250     2104     2100     2265     2264     2329     2361
     3019     2331     2710     2711     3039     2720     2330     2360     3021     3024
      253     1985     2250     2249     1993     1986     2261     2260     1994     2331     3019
     2361     2329     2335     3036     2365     2333     2327     3023     3020     2357
      254     1986     2261     2260     1994     2113     2167     2166     2117     2335     3036
     2365     2333     2745     2860     2754     2744     2334     2863     2861     2364
      255     1993     2001     2248     2249     2100     2096     2266     2265     2359     2391
     3016     2361     2701     2702     3040     2711     2360     2390     3018     3021
! ... 341 like lines cut
secnum,1    ! reset the section ID to default
! Material Id = {AE9D19CD-290C-42D6-BC9F-96E50A9CC010}
/wb,elem,end               !  done creating elements
toffst,273.15,      ! Temperature offset from absolute zero
/com,*********** Set Reference Temperature ***********
tref,22.
/wb,mat,start              !  starting to send materials
/com,*********** Send Materials ***********

TB,ELASTIC,1,,,AELS

TBDATA,1,121000000000,75900000000,75400000000,0,0,0
TBDATA,7,121000000000,75400000000,0,0,0,111000000000
TBDATA,13,0,0,0,22600000000,0,0
TBDATA,19,21100000000,0,21100000000
MP,DENS,1,7750,	! kg m^-3

TB,DPER,1,,,0

TBDATA,1,915.9,915.9,830.1,0,0,0

TB,PIEZ,1,,,0

TBDATA,1,0,0,-5.4,0,0,-5.4
TBDATA,7,0,0,15.8,0,0,0
TBDATA,13,0,12.3,0,12.3,0,0
MP,UVID,1,47be0359-5389-4154-8c39-afc21c4fc7a5

Temperature = 'TEMP' ! Temperature
MP,DENS,2,7850,	! kg m^-3
MP,ALPX,2,1.2e-05,	! C^-1
MP,C,2,434,	! J kg^-1 C^-1
MP,KXX,2,60.5,	! W m^-1 C^-1
MP,RSVX,2,1.7e-07,	! kg m^3 A^-2 s^-3
MP,EX,2,200000000000,	! Pa
MP,NUXY,2,0.3,
MP,MURX,2,10000,
MP,UVID,2,fecce473-ee91-46e1-9369-6fac526ce5fc
MP,UMID,2,59002a79-71c2-428e-906b-55d7dbee100e

Temperature = 'TEMP' ! Temperature
MP,DENS,3,19250,	! kg m^-3
MP,ALPX,3,1.2e-05,	! C^-1
MP,KXX,3,60.5,	! W m^-1 C^-1
MP,EX,3,410000000000,	! Pa
MP,NUXY,3,0.26,
MP,MURX,3,10000,
MP,UVID,3,6962c909-abfd-4c95-982e-e7d34a33639f
MP,UMID,3,36db2ad3-6e81-4b4b-b0b3-fef6f6b07f23

/wb,mat,end                !  done sending materials
!************************* Model Summary ********************
!piezo,	PZT-5A,	matid,	1
!belka,	Structural Steel,	matid,	2
!masa,	Tungsten,	matid,	3
!************************* End Model Summary ********************
! get the diagonal of the bounding box. Needed later for other things
*get,_xmin,node,,mnloc,x
*get,_ymin,node,,mnloc,y
*get,_zmin,node,,mnloc,z
*get,_xmax,node,,mxloc,x
*get,_ymax,node,,mxloc,y
*get,_zmax,node,,mxloc,z
_ASMDIAG=(_xmax-_xmin)*(_xmax-_xmin)+(_ymax-_ymin)*(_ymax-_ymin)+(_zmax-_zmin)*(_zmax-_zmin)
_ASMDIAG=SQRT(_ASMDIAG)
/wb,contact,start          !  starting to send contact
/com,*********** Create Contact "Contact Region" ***********
/com,            Real Constant Set For Above Contact Is 5 & 4 
*set,tid,5
*set,cid,4
r,tid
r,cid
et,tid,170
et,cid,174
MAT,5 $ TYPE,5 $ REAL,5 $ SECNUM,5 $ ESYS,0
eblock,11,COMPACT,,93
(11i9)
     1242       78      107       69       69      492      460       69      458
     1243      103      102      104      104      567      568      104      570
     1244      119       98      118      104      557      556      573      574
     1245       97       77       96      120      488      487      550      554
     1246       96       77      105      121      487      490      575      551
     1247       95      100       72      122      546      468      470      548
     1248      100       95      121      105      546      547      575      563
     1249       72      123       94      122      471      544      543      470
     1250       78       69      116       90      458      461      530      491
     1251       90      116       99      136      530      559      561      531
     1252       78       90       91      125      491      529      533      493
     1253      100       70      106       72      462      464      469      468
     1254      100      105      102       70      563      569      463      462
     1255      107       76      102       69      485      483      459      460
     1256      102      103      116       69      567      571      461      459
     1257      102       76      106       70      483      484      464      463
     1258      112       74      113       73      478      479      474      473
     1259       73       83      132      112      472      506      584      473
     1260       74      101      114      113      476      566      585      479
     1261       74      111      110      101      477      580      565      476
! ... 74 like lines cut
secnum,1    ! reset the section ID to default
MAT,4 $ TYPE,4 $ REAL,4 $ SECNUM,4 $ ESYS,0
eblock,11,COMPACT,,93
(11i9)
     1335       78      107       69       69      492      460       69      458
     1336      103      102      104      104      567      568      104      570
     1337      119       98      118      104      557      556      573      574
     1338       97       77       96      120      488      487      550      554
     1339       96       77      105      121      487      490      575      551
     1340       95      100       72      122      546      468      470      548
     1341      100       95      121      105      546      547      575      563
     1342       72      123       94      122      471      544      543      470
     1343       78       69      116       90      458      461      530      491
     1344       90      116       99      136      530      559      561      531
     1345       78       90       91      125      491      529      533      493
     1346      100       70      106       72      462      464      469      468
     1347      100      105      102       70      563      569      463      462
     1348      107       76      102       69      485      483      459      460
     1349      102      103      116       69      567      571      461      459
     1350      102       76      106       70      483      484      464      463
     1351      112       74      113       73      478      479      474      473
     1352       73       83      132      112      472      506      584      473
     1353       74      101      114      113      476      566      585      479
     1354       74      111      110      101      477      580      565      476
! ... 74 like lines cut
secnum,1    ! reset the section ID to default
MAT,4 $ TYPE,4 $ REAL,5 $ SECNUM,4 $ ESYS,0
eblock,11,COMPACT,,70
(11i9)
     1428      939      940      922      921     1635     1601     1598     1599
     1429      957      958      940      939     1672     1638     1635     1636
     1430      975      976      958      957     1709     1675     1672     1673
     1431      993      994      976      975     1746     1712     1709     1710
     1432      922      923      905      904     1600     1552     1548     1549
     1433      940      941      923      922     1637     1603     1600     1601
     1434      958      959      941      940     1674     1640     1637     1638
     1435      976      977      959      958     1711     1677     1674     1675
     1436      994      995      977      976     1748     1714     1711     1712
     1437     1012     1013      995      994     1785     1751     1748     1749
     1438      923      924      906      905     1602     1555     1551     1552
     1439      941      942      924      923     1639     1605     1602     1603
     1440      959      960      942      941     1676     1642     1639     1640
     1441      977      978      960      959     1713     1679     1676     1677
     1442      995      996      978      977     1750     1716     1713     1714
     1443     1013     1014      996      995     1787     1753     1750     1751
     1444      924      925      907      906     1604     1558     1554     1555
     1445      942      943      925      924     1641     1607     1604     1605
     1446      960      961      943      942     1678     1644     1641     1642
     1447      978      979      961      960     1715     1681     1678     1679
! ... 51 like lines cut
secnum,1    ! reset the section ID to default
MAT,5 $ TYPE,5 $ REAL,4 $ SECNUM,5 $ ESYS,0
eblock,11,COMPACT,,70
(11i9)
     1498      939      940      922      921     1635     1601     1598     1599
     1499      957      958      940      939     1672     1638     1635     1636
     1500      975      976      958      957     1709     1675     1672     1673
     1501      993      994      976      975     1746     1712     1709     1710
     1502      922      923      905      904     1600     1552     1548     1549
     1503      940      941      923      922     1637     1603     1600     1601
     1504      958      959      941      940     1674     1640     1637     1638
     1505      976      977      959      958     1711     1677     1674     1675
     1506      994      995      977      976     1748     1714     1711     1712
     1507     1012     1013      995      994     1785     1751     1748     1749
     1508      923      924      906      905     1602     1555     1551     1552
     1509      941      942      924      923     1639     1605     1602     1603
     1510      959      960      942      941     1676     1642     1639     1640
     1511      977      978      960      959     1713     1679     1676     1677
     1512      995      996      978      977     1750     1716     1713     1714
     1513     1013     1014      996      995     1787     1753     1750     1751
     1514      924      925      907      906     1604     1558     1554     1555
     1515      942      943      925      924     1641     1607     1604     1605
     1516      960      961      943      942     1678     1644     1641     1642
     1517      978      979      961      960     1715     1681     1678     1679
! ... 51 like lines cut
secnum,1    ! reset the section ID to default
keyo,cid,8,2               ! auto create asymmetric contact (from Program Controlled setting)
keyo,cid,10,0              ! adjust contact stiffness each NR iteration (from Program Controlled setting)
keyo,cid,12,5              ! bonded always
keyo,cid,18,1              ! small sliding turned on by application
keyo,cid,2,0               ! augmented Lagrange (from Program Controlled setting)
keyo,cid,4,0               ! on Gauss point (from Program Controlled setting)
keyo,cid,9,1               ! ignore initial gaps/penetration
keyo,cid,7,0               ! No Prediction
rmod,tid,3,10.      ! FKN
rmod,tid,5,0.       ! ICONT
rmod,tid,6,0.       ! PINB
rmod,tid,10,0.      ! CNOF
rmod,tid,12,0.      ! FKT
rmod,tid,36,564     ! WB DSID
rmod,cid,3,10.      ! FKN
rmod,cid,5,0.       ! ICONT
rmod,cid,6,0.       ! PINB
rmod,cid,10,0.      ! CNOF
rmod,cid,12,0.      ! FKT
rmod,cid,36,564     ! WB DSID
/com,*********** Create Contact "Contact Region 2" ***********
/com,            Real Constant Set For Above Contact Is 7 & 6 
*set,tid,7
*set,cid,6
r,tid
r,cid
et,tid,170
et,cid,174
MAT,7 $ TYPE,7 $ REAL,7 $ SECNUM,7 $ ESYS,0
eblock,11,COMPACT,,24
(11i9)
     1568     1052      901     1054     1053     1540     1541     1868     1866
     1569     1051      919      901     1052     1595     1539     1540     1864
     1570     1050      937      919     1051     1632     1594     1595     1862
     1571     1049      955      937     1050     1669     1631     1632     1860
     1572     1048      973      955     1049     1706     1668     1669     1858
     1573     1047      991      973     1048     1743     1705     1706     1856
     1574     1046     1009      991     1047     1780     1742     1743     1854
     1575     1045     1044     1009     1046     1850     1779     1780     1852
     1576      901      902     1055     1054     1538     1544     1870     1541
     1577      919      920      902      901     1593     1543     1538     1539
     1578      937      938      920      919     1630     1597     1593     1594
     1579      955      956      938      937     1667     1634     1630     1631
     1580      973      974      956      955     1704     1671     1667     1668
     1581      991      992      974      973     1741     1708     1704     1705
     1582     1009     1010      992      991     1778     1745     1741     1742
     1583     1044     1043     1010     1009     1848     1782     1778     1779
     1584      902      903     1056     1055     1542     1547     1872     1544
     1585      920      921      903      902     1596     1546     1542     1543
     1586      938      939      921      920     1633     1599     1596     1597
     1587      956      957      939      938     1670     1636     1633     1634
! ... 5 like lines cut
secnum,1    ! reset the section ID to default
MAT,6 $ TYPE,6 $ REAL,6 $ SECNUM,6 $ ESYS,0
eblock,11,COMPACT,,24
(11i9)
     1592     1052      901     1054     1053     1540     1541     1868     1866
     1593     1051      919      901     1052     1595     1539     1540     1864
     1594     1050      937      919     1051     1632     1594     1595     1862
     1595     1049      955      937     1050     1669     1631     1632     1860
     1596     1048      973      955     1049     1706     1668     1669     1858
     1597     1047      991      973     1048     1743     1705     1706     1856
     1598     1046     1009      991     1047     1780     1742     1743     1854
     1599     1045     1044     1009     1046     1850     1779     1780     1852
     1600      901      902     1055     1054     1538     1544     1870     1541
     1601      919      920      902      901     1593     1543     1538     1539
     1602      937      938      920      919     1630     1597     1593     1594
     1603      955      956      938      937     1667     1634     1630     1631
     1604      973      974      956      955     1704     1671     1667     1668
     1605      991      992      974      973     1741     1708     1704     1705
     1606     1009     1010      992      991     1778     1745     1741     1742
     1607     1044     1043     1010     1009     1848     1782     1778     1779
     1608      902      903     1056     1055     1542     1547     1872     1544
     1609      920      921      903      902     1596     1546     1542     1543
     1610      938      939      921      920     1633     1599     1596     1597
     1611      956      957      939      938     1670     1636     1633     1634
! ... 5 like lines cut
secnum,1    ! reset the section ID to default
MAT,6 $ TYPE,6 $ REAL,7 $ SECNUM,6 $ ESYS,0
eblock,11,COMPACT,,60
(11i9)
     1616     2237     2108     2263     2238     2728     2729     2990     2988
     1617     2108     2104     2264     2263     2719     2720     3038     2729
     1618     2104     2100     2265     2264     2710     2711     3039     2720
     1619     2100     2096     2266     2265     2701     2702     3040     2711
     1620     2096     2092     2267     2266     2692     2693     3041     2702
     1621     2092     2088     2268     2267     2683     2684     3042     2693
     1622     2088     2084     2269     2268     2674     2675     3043     2684
     1623     2084     2080     2270     2269     2665     2666     3044     2675
     1624     2080     2076     2271     2270     2656     2657     3045     2666
     1625     2076     2072     2272     2271     2647     2648     3046     2657
     1626     2072     2068     2273     2272     2637     2638     3047     2648
     1627     2068     2285     2274     2273     2639     3050     3048     2638
     1628     2236     2107     2108     2237     2727     2726     2728     2987
     1629     2107     2103     2104     2108     2718     2717     2719     2726
     1630     2103     2099     2100     2104     2709     2708     2710     2717
     1631     2099     2095     2096     2100     2700     2699     2701     2708
     1632     2095     2091     2092     2096     2691     2690     2692     2699
     1633     2091     2087     2088     2092     2682     2681     2683     2690
     1634     2087     2083     2084     2088     2673     2672     2674     2681
     1635     2083     2079     2080     2084     2664     2663     2665     2672
! ... 41 like lines cut
secnum,1    ! reset the section ID to default
MAT,7 $ TYPE,7 $ REAL,6 $ SECNUM,7 $ ESYS,0
eblock,11,COMPACT,,60
(11i9)
     1676     2237     2108     2263     2238     2728     2729     2990     2988
     1677     2108     2104     2264     2263     2719     2720     3038     2729
     1678     2104     2100     2265     2264     2710     2711     3039     2720
     1679     2100     2096     2266     2265     2701     2702     3040     2711
     1680     2096     2092     2267     2266     2692     2693     3041     2702
     1681     2092     2088     2268     2267     2683     2684     3042     2693
     1682     2088     2084     2269     2268     2674     2675     3043     2684
     1683     2084     2080     2270     2269     2665     2666     3044     2675
     1684     2080     2076     2271     2270     2656     2657     3045     2666
     1685     2076     2072     2272     2271     2647     2648     3046     2657
     1686     2072     2068     2273     2272     2637     2638     3047     2648
     1687     2068     2285     2274     2273     2639     3050     3048     2638
     1688     2236     2107     2108     2237     2727     2726     2728     2987
     1689     2107     2103     2104     2108     2718     2717     2719     2726
     1690     2103     2099     2100     2104     2709     2708     2710     2717
     1691     2099     2095     2096     2100     2700     2699     2701     2708
     1692     2095     2091     2092     2096     2691     2690     2692     2699
     1693     2091     2087     2088     2092     2682     2681     2683     2690
     1694     2087     2083     2084     2088     2673     2672     2674     2681
     1695     2083     2079     2080     2084     2664     2663     2665     2672
! ... 41 like lines cut
secnum,1    ! reset the section ID to default
keyo,cid,8,2               ! auto create asymmetric contact (from Program Controlled setting)
keyo,cid,10,0              ! adjust contact stiffness each NR iteration (from Program Controlled setting)
keyo,cid,12,5              ! bonded always
keyo,cid,18,1              ! small sliding turned on by application
keyo,cid,2,0               ! augmented Lagrange (from Program Controlled setting)
keyo,cid,4,0               ! on Gauss point (from Program Controlled setting)
keyo,cid,9,1               ! ignore initial gaps/penetration
keyo,cid,7,0               ! No Prediction
rmod,tid,3,10.      ! FKN
rmod,tid,5,0.       ! ICONT
rmod,tid,6,0.       ! PINB
rmod,tid,10,0.      ! CNOF
rmod,tid,12,0.      ! FKT
rmod,tid,36,567     ! WB DSID
rmod,cid,3,10.      ! FKN
rmod,cid,5,0.       ! ICONT
rmod,cid,6,0.       ! PINB
rmod,cid,10,0.      ! CNOF
rmod,cid,12,0.      ! FKT
rmod,cid,36,567     ! WB DSID
nsel,all
esel,all
/wb,contact,end            !  done creating contacts
/golist
/wb,load,start             !  starting to send loads
/com,*********** Fixed Supports ***********
CMBLOCK,_FIXEDSU,NODE,        4
(8i10)
      1072     -1089      1906     -1930
cmsel,s,_FIXEDSU
d,all,all
nsel,all
/com,*********** Define Force Using Surface Effect Elements ***********
local,12,0,0.,0.,0.,0.,0.,0.
csys,0
et,8,154
MAT,8 $ TYPE,8 $ REAL,8 $ SECNUM,8 $ ESYS,12
eblock,11,COMPACT,,60
(11i9)
     1736     2237     2108     2263     2238     2728     2729     2990     2988
     1737     2108     2104     2264     2263     2719     2720     3038     2729
     1738     2104     2100     2265     2264     2710     2711     3039     2720
     1739     2100     2096     2266     2265     2701     2702     3040     2711
     1740     2096     2092     2267     2266     2692     2693     3041     2702
     1741     2092     2088     2268     2267     2683     2684     3042     2693
     1742     2088     2084     2269     2268     2674     2675     3043     2684
     1743     2084     2080     2270     2269     2665     2666     3044     2675
     1744     2080     2076     2271     2270     2656     2657     3045     2666
     1745     2076     2072     2272     2271     2647     2648     3046     2657
     1746     2072     2068     2273     2272     2637     2638     3047     2648
     1747     2068     2285     2274     2273     2639     3050     3048     2638
     1748     2236     2107     2108     2237     2727     2726     2728     2987
     1749     2107     2103     2104     2108     2718     2717     2719     2726
     1750     2103     2099     2100     2104     2709     2708     2710     2717
     1751     2099     2095     2096     2100     2700     2699     2701     2708
     1752     2095     2091     2092     2096     2691     2690     2692     2699
     1753     2091     2087     2088     2092     2682     2681     2683     2690
     1754     2087     2083     2084     2088     2673     2672     2674     2681
     1755     2083     2079     2080     2084     2664     2663     2665     2672
! ... 41 like lines cut
secnum,1    ! reset the section ID to default
esel,s,type,,8
keyop,8,2,1         ! Apply load in local coordinate system
keyop,8,7,1         ! Use original area so load is constant in large deformation
esel,all

*DIM,_loadvari104x,TABLE,1,1,1,FREQ, , , 0
! Frequency values
*TAXIS,_loadvari104x(1),1,1.
! Load values
_loadvari104x(1,1,1) = 0.



*DIM,_loadvari104xi,TABLE,1,1,1,FREQ, , , 0
! Frequency values
*TAXIS,_loadvari104xi(1),1,1.
! Load values
_loadvari104xi(1,1,1) = 0.



*DIM,_loadvari104y,TABLE,1,1,1,FREQ, , , 0
! Frequency values
*TAXIS,_loadvari104y(1),1,1.
! Load values
_loadvari104y(1,1,1) = -166.666666666679



*DIM,_loadvari104yi,TABLE,1,1,1,FREQ, , , 0
! Frequency values
*TAXIS,_loadvari104yi(1),1,1.
! Load values
_loadvari104yi(1,1,1) = 0.



*DIM,_loadvari104z,TABLE,1,1,1,FREQ, , , 0
! Frequency values
*TAXIS,_loadvari104z(1),1,1.
! Load values
_loadvari104z(1,1,1) = 0.



*DIM,_loadvari104zi,TABLE,1,1,1,FREQ, , , 0
! Frequency values
*TAXIS,_loadvari104zi(1),1,1.
! Load values
_loadvari104zi(1,1,1) = 0.


/gst,on,on
fini
*get,_numnode,node,0,count
*get,_numelem,elem,0,count
*get, _MAXELEMNUM, elem, 0, NUM, MAX
*get, _MAXNODENUM, node, 0, NUM, MAX
*get, _MAXELEMTYPE, etyp, 0, NUM, MAX
*get, _MAXREALCONST, rcon, 0, NUM, MAX
/go
/wb,load,end               !  done creating loads
/com,--- Number of total nodes = %_numnode%
/com,--- Number of contact elements = 554
/com,--- Number of spring elements = 0
/com,--- Number of bearing elements = 0
/com,--- Number of solid elements = 425
/com,--- Number of condensed parts = 0
/com,--- Number of total elements = %_numelem%
*get,_wallbsol,active,,time,wall
/com,*********** Performing Modal Solve ***********
/solu
antype,2
modcontrol,on,,,    ! 
thexpand,off     ! ignore thermal strains
mxpand,,,,yes,,no     ! expand element results for stress/strains, but not write them to file.mode
outres,erase
outres,all,none
outres,nsol,all
outres,eangl,all
outres,veng,all
outres,strs,all,
outres,epel,all,
outres,rsol,all
outres,cont,all,
modopt,lanb,200,0.,50.
fdele,all,all
sfdele,all,all
sfedele,all,all,all
acel,0,0,0                 ! zero out the acceleration
/com,*********** Setting and Solving Each Load Step ***********
esel,s,type,,8
nsle
sfe,all,2,pres,1,1
nsel,all
esel,all
solve
/com,**********************
/com *************** Write FE CONNECTORS ********* 
CEWRITE,file,ce,,INTE
fini
*get,_wallasol,active,,time,wall
/com,*********** Performing MSUP Harmonic Solve ***********
/solu
antype,harm
hropt,msup
thexpand,off     ! ignore thermal strains
hrout,off
kbc,1
harfrq,0,25
nsub,100
fdele,all,all
sfdele,all,all
sfedele,all,all,all
acel,0,0,0                 ! zero out the acceleration
lvscale,0,1
/com,*********** Scaling Each Load Step for MSUP Solve ***********
lvscale,%_loadvari104y%,1
! *********** WB SOLVE COMMAND ***********
! check interactive state
*get,ANSINTER_,active,,int
*if,ANSINTER_,ne,0,then
/eof
*endif
solve

fini
*get,_wallasol,active,,time,wall
! ------- MSUP EXPANSION PASS -------
/solu
expass,on
hrexp,all
outres,erase
outres,all,none
outres,nsol,all
outres,eangl,all
outres,veng,all
outres,strs,all,
outres,epel,all,
outres,rsol,all
outres,cont,all,
numexp,all,,,yes        ! expand results at all freq. and calculate requested result items
! *********** WB SOLVE COMMAND ***********
! check interactive state
*get,ANSINTER_,active,,int
*if,ANSINTER_,ne,0,then
/eof
*endif
solve
/com *************** Write FE CONNECTORS ********* 
CEWRITE,file,ce,,INTE
fini
/post1
xmlo,ENCODING,ISO-8859-1
xmlo,parm
/xml,parm,xml
fini
/gopr
*get,_walldone,active,,time,wall
_preptime=(_wallbsol-_wallstrt)*3600
_solvtime=(_wallasol-_wallbsol)*3600
_posttime=(_walldone-_wallasol)*3600
_totaltim=(_walldone-_wallstrt)*3600
*get,_dlbratio,active,0,solu,dlbr
*get,_combtime,active,0,solu,comb
*get,_ssmode,active,0,solu,ssmm
*get,_ndofs,active,0,solu,ndof
/fclean				!clean distributed files
/com,--- Total number of nodes = %_numnode%
/com,--- Total number of elements = %_numelem%
/com,--- Element load balance ratio = %_dlbratio%
/com,--- Time to combine distributed files = %_combtime%
/com,--- Sparse memory mode = %_ssmode%
/com,--- Number of DOF = %_ndofs%
/wb,file,end               ! done with WB generated input
