/batch
/config,noeldb,1     ! force off writing results to database
*get,_wallstrt,active,,time,wall
! ANSYS input file written by Workbench version 2025 R2
! File used for geometry attach: C:\Users\admin\Desktop\LIDIX\ansys\układ_bimorficzny_polimer__1_files\dp0\Geom\DM\Geom.agdb
/title,uk_ad_bimorficzny_polimer__1--Modal (B5)
! ****** Begin Custom Load Command Snippet ******
/COM, ACT Extensions:
/COM,     LSDYNA, 2025.2
/COM,     5f463412-bd3e-484b-87e7-cbc0a665e474, wbex
/COM,/COM,     ANSYSMotion, 2025.2
/COM,     20180725-3f81-49eb-9f31-41364844c769, wbex
/COM,
! ****** End   Custom Load Command Snippet ******
*DIM,_wb_ProjectScratch_dir,string,248
_wb_ProjectScratch_dir(1) = 'C:\Users\admin\Desktop\LIDIX\ansys\_ProjectScratch\ScrFCB5\'

/com,--- Data in consistent MKS units. See Solving Units in the help system for more information.
/units,MKS
/nopr
/wb,file,start              !  signify a WB generated input file
/prep7
! Turn off shape checking because checks already performed inside WB mesher.
! See help system for more information.
SHPP,OFF,,NOWARN
/nolist
etcon,set             ! allow ANSYS to choose best KEYOP's for 180x elements, resets any applicable keyopt to MAPDL defaults
/com,*********** Send User Defined Coordinate System(s) ***********
csys,0
/com,*********** Nodes for the whole assembly ***********
nblock,3,,4295
(1i9,3e20.9e3)
        1     2.360524559E-02     0.000000000E+00     3.217424099E-02
        2     2.759168446E-02     0.000000000E+00     2.866262074E-02
        3     2.803298093E-02     0.000000000E+00     2.317486854E-02
        4     2.500003013E-02     0.000000000E+00     1.845336373E-02
        5     2.008253361E-02     0.000000000E+00     1.658029054E-02
        6     1.484683478E-02     0.000000000E+00     1.840018747E-02
        7     1.193644734E-02     0.000000000E+00     2.323185671E-02
        8     1.252764099E-02     0.000000000E+00     2.885401578E-02
        9     1.628944069E-02     0.000000000E+00     3.307140965E-02
       10     1.661265935E-02     0.000000000E+00     5.733878527E-02
       11     1.231703914E-02     0.000000000E+00     6.142518210E-02
       12     1.183203494E-02     0.000000000E+00     6.636820830E-02
       13     1.502022394E-02     0.000000000E+00     7.172032479E-02
       14     1.964468675E-02     0.000000000E+00     7.328650845E-02
       15     2.549400051E-02     0.000000000E+00     7.091782931E-02
       16     2.965053440E-02     0.000000000E+00     6.710591849E-02
       17     2.742888925E-02     0.000000000E+00     6.150202959E-02
       18     2.350354397E-02     0.000000000E+00     5.664428211E-02
       19     2.062849220E-02     0.000000000E+00     3.268441736E-02
       20     1.931107606E-02     0.000000000E+00     5.619937614E-02
! ... 3886 like lines cut
/wb,elem,start            !  set before creation of elements
/com,*********** Elements for Body 1 'piezo' ***********
et,1,186
keyo,1,2,1          ! set full integration on SOLID186
MAT,1 $ TYPE,1 $ REAL,1 $ SECNUM,1 $ ESYS,0
eblock,11,COMPACT,,108
(11i9)
        1       73       85       86       84      100       88       87       89      504      532
      530      503      539      535      536      543      505      533      534      531
        2       76       83       84       86       97       90       89       87      511      528
      530      512      546      541      536      537      513      529      531      534
        3       25       76       86       26      148       97       87      147      379      512
      382      376      564      537      538      696      380      513      534      383
        4       26       86       85       69      147       87       88      104      382      532
      493      381      538      535      540      581      383      534      533      494
        5       68       69       85       73      105      104       88      100      490      493
      504      491      579      540      539      570      492      494      533      505
        6       80       81       84       83       93       92       89       90      521      525
      528      523      551      542      541      544      524      526      531      529
        7       73       84       81       78      100       89       92       95      503      525
      518      502      543      542      552      559      505      531      526      519
        8       77       82       80       83       96       91       93       90      514      522
      523      515      548      547      544      545      516      527      524      529
        9       37       80       82       75      136       93       91       98      429      522
      509      428      554      547      549      566      430      524      527      510
       10       72       77       83       76      101       96       90       97      500      515
      511      499      561      545      546      563      501      516      529      513
! ... 197 like lines cut
secnum,1    ! reset the section ID to default
! Material Id = {9A37691C-5B68-481B-B90F-0269A15B947B}
/com,*********** Elements for Body 2 'masa' ***********
et,2,186
keyo,2,2,1          ! set full integration on SOLID186
MAT,2 $ TYPE,2 $ REAL,2 $ SECNUM,2 $ ESYS,0
eblock,11,COMPACT,,180
(11i9)
      109      865     1075     1112     1120      996     1097     1111     1125     1181     1792
     1855     1182     1616     1836     1853     1617     1180     1791     1852     1872
      110      865     1120     1112     1075      866     1121     1113     1076     1182     1855
     1792     1181     1187     1856     1794     1186     1177     1871     1854     1789
      111      866     1121     1113     1076      997     1057     1074     1073     1187     1856
     1794     1186     1620     1755     1786     1621     1185     1756     1788     1787
      112      865      873     1077     1075      996      992     1098     1097     1179     1219
     1790     1181     1607     1608     1835     1616     1180     1218     1797     1791
      113      865     1075     1077      873      866     1076     1078      874     1181     1790
     1219     1179     1186     1793     1223     1184     1177     1789     1795     1215
      114      866     1076     1078      874      997     1073     1072     1001     1186     1793
     1223     1184     1621     1784     1633     1619     1185     1787     1785     1222
      115      873      881     1079     1077      992      988     1099     1098     1217     1249
     1796     1219     1598     1599     1837     1608     1218     1248     1801     1797
      116      873     1077     1079      881      874     1078     1080      882     1219     1796
     1249     1217     1223     1798     1253     1221     1215     1795     1799     1245
      117      874     1078     1080      882     1001     1072     1071     1005     1223     1798
     1253     1221     1633     1782     1642     1632     1222     1785     1783     1252
      118      881      889     1081     1079      988      984     1100     1099     1247     1279
     1800     1249     1589     1590     1838     1599     1248     1278     1805     1801
! ... 341 like lines cut
secnum,1    ! reset the section ID to default
! Material Id = {E7B83354-9B45-4061-8008-C57543DAA9A2}
/com,*********** Elements for Body 3 'piezo' ***********
et,3,186
keyo,3,2,1          ! set full integration on SOLID186
MAT,3 $ TYPE,3 $ REAL,3 $ SECNUM,3 $ ESYS,0
eblock,11,COMPACT,,91
(11i9)
      289     2014     2023     2021     2022     2041     2032     2034     2033     2382     2397
     2396     2381     2423     2421     2425     2426     2383     2401     2398     2399
      290     1974     2023     2014     2015     2081     2032     2041     2040     2262     2382
     2379     2261     2424     2423     2445     2448     2263     2401     2383     2385
      291     1961     1990     2026     2027     2094     2065     2029     2028     2197     2326
     2404     2198     2524     2413     2408     2410     2199     2327     2405     2406
      292     1961     2027     2158     2159     2094     2028     2130     2131     2198     2407
     2679     2200     2410     2411     2634     2559     2199     2406     2635     2637
      293     1962     2157     2158     2027     2093     2129     2130     2028     2205     2678
     2407     2203     2558     2632     2411     2409     2204     2633     2635     2406
      294     1962     2027     2026     2009     2093     2028     2029     2046     2203     2404
     2371     2202     2409     2408     2412     2465     2204     2406     2405     2372
      295     1981     2009     2026     1990     2074     2046     2029     2065     2293     2371
     2326     2292     2464     2412     2413     2523     2294     2372     2405     2327
      296     1981     1990     2025     1983     2074     2065     2030     2072     2292     2325
     2301     2291     2523     2414     2416     2535     2294     2327     2403     2302
      297     1983     2025     1984     2011     2072     2030     2071     2044     2301     2306
     2304     2300     2416     2415     2457     2458     2302     2403     2307     2376
      298     1979     1984     2025     1980     2076     2071     2030     2075     2283     2306
     2288     2282     2534     2415     2417     2537     2287     2307     2403     2289
! ... 163 like lines cut
secnum,1    ! reset the section ID to default
! Material Id = {BFC697E5-418D-46C9-8EA1-A18F3B8482AE}
/com,*********** Elements for Body 4 'belka' ***********
et,4,186
keyo,4,2,1          ! set full integration on SOLID186
MAT,4 $ TYPE,4 $ REAL,4 $ SECNUM,4 $ ESYS,0
eblock,11,COMPACT,,152
(11i9)
      380     2829     3057     3056     3055     2830     2962     2963     2964     3466     3899
     3898     3465     3469     3757     3759     3470     3464     3758     3760     3762
      381     2822     2829     3055     3054     2837     2830     2964     2965     3442     3465
     3897     3444     3468     3470     3761     3491     3443     3464     3762     3764
      382     2815     2822     3054     3053     2844     2837     2965     2966     3420     3444
     3896     3422     3490     3491     3763     3506     3421     3443     3764     3766
      383     2808     2815     3053     3052     2851     2844     2966     2967     3398     3422
     3895     3400     3505     3506     3765     3521     3399     3421     3766     3768
      384     2801     2808     3052     3051     2858     2851     2967     2968     3376     3400
     3894     3378     3520     3521     3767     3536     3377     3399     3768     3770
      385     2794     2801     3051     3050     2865     2858     2968     2969     3354     3378
     3893     3356     3535     3536     3769     3551     3355     3377     3770     3772
      386     2787     2794     3050     3049     2872     2865     2969     2970     3332     3356
     3892     3334     3550     3551     3771     3566     3333     3355     3772     3774
      387     2780     2787     3049     3048     2879     2872     2970     2971     3310     3334
     3891     3312     3565     3566     3773     3581     3311     3333     3774     3776
      388     2773     2780     3048     3047     2886     2879     2971     2972     3288     3312
     3890     3290     3580     3581     3775     3596     3289     3311     3776     3778
      389     2766     2773     3047     3046     2893     2886     2972     2973     3266     3290
     3889     3268     3595     3596     3777     3611     3267     3289     3778     3780
! ... 285 like lines cut
secnum,1    ! reset the section ID to default
! Material Id = {EDB9CA49-5A7B-4610-9D0B-70C9A4ECBCE9}
/wb,elem,end               !  done creating elements
toffst,273.15,      ! Temperature offset from absolute zero
/com,*********** Set Reference Temperature ***********
tref,22.
/wb,mat,start              !  starting to send materials
/com,*********** Send Materials ***********

TB,ELASTIC,1,,,AELS

TBDATA,1,2000000000,500000000,400000000,0,0,0
TBDATA,7,2000000000,400000000,0,0,0,2300000000
TBDATA,13,0,0,0,750000000,0,0
TBDATA,19,800000000,0,800000000
MP,DENS,1,1780,	! kg m^-3

TB,DPER,1,,,0

TBDATA,1,12,12,10,0,0,0

TB,PIEZ,1,,,0

TBDATA,1,0,0,-23,0,0,-23
TBDATA,7,0,0,33,0,0,0
TBDATA,13,0,12,0,12,0,0
MP,UVID,1,373659e7-b223-4098-adbb-7c4bdae8f2fc

Temperature = 'TEMP' ! Temperature
MP,DENS,2,19250,	! kg m^-3
MP,ALPX,2,1.2e-05,	! C^-1
MP,KXX,2,60.5,	! W m^-1 C^-1
MP,EX,2,410000000000,	! Pa
MP,NUXY,2,0.26,
MP,MURX,2,10000,
MP,UVID,2,6962c909-abfd-4c95-982e-e7d34a33639f
MP,UMID,2,36db2ad3-6e81-4b4b-b0b3-fef6f6b07f23


TB,ELASTIC,3,,,AELS

TBDATA,1,2000000000,500000000,400000000,0,0,0
TBDATA,7,2000000000,400000000,0,0,0,2300000000
TBDATA,13,0,0,0,750000000,0,0
TBDATA,19,800000000,0,800000000
MP,DENS,3,1780,	! kg m^-3

TB,DPER,3,,,0

TBDATA,1,12,12,10,0,0,0

TB,PIEZ,3,,,0

TBDATA,1,0,0,23,0,0,23
TBDATA,7,0,0,-33,0,0,0
TBDATA,13,0,-12,0,-12,0,0
MP,UVID,3,cc71af0b-fbdd-448c-b9e8-e96aa30c0fda

Temperature = 'TEMP' ! Temperature
MP,DENS,4,7850,	! kg m^-3
MP,ALPX,4,1.2e-05,	! C^-1
MP,C,4,434,	! J kg^-1 C^-1
MP,KXX,4,60.5,	! W m^-1 C^-1
MP,RSVX,4,1.7e-07,	! kg m^3 A^-2 s^-3
MP,EX,4,200000000000,	! Pa
MP,NUXY,4,0.3,
MP,MURX,4,10000,
MP,UVID,4,fecce473-ee91-46e1-9369-6fac526ce5fc
MP,UMID,4,59002a79-71c2-428e-906b-55d7dbee100e

/wb,mat,end                !  done sending materials
!************************* Model Summary ********************
!piezo,	polimer,	matid,	1
!masa,	Tungsten,	matid,	2
!piezo,	polimer 2,	matid,	3
!belka,	Structural Steel,	matid,	4
!************************* End Model Summary ********************
! get the diagonal of the bounding box. Needed later for other things
*get,_xmin,node,,mnloc,x
*get,_ymin,node,,mnloc,y
*get,_zmin,node,,mnloc,z
*get,_xmax,node,,mxloc,x
*get,_ymax,node,,mxloc,y
*get,_zmax,node,,mxloc,z
_ASMDIAG=(_xmax-_xmin)*(_xmax-_xmin)+(_ymax-_ymin)*(_ymax-_ymin)+(_zmax-_zmin)*(_zmax-_zmin)
_ASMDIAG=SQRT(_ASMDIAG)
/wb,contact,start          !  starting to send contact
/com,*********** Create Contact "Contact Region" ***********
/com,            Real Constant Set For Above Contact Is 6 & 5 
*set,tid,6
*set,cid,5
r,tid
r,cid
et,tid,170
et,cid,174
MAT,6 $ TYPE,6 $ REAL,6 $ SECNUM,6 $ ESYS,0
eblock,11,COMPACT,,108
(11i9)
     1598       71       75       37       37      497      428       37      427
     1599       32       33       38       38      407      411       38      408
     1600       85       73       84       86      504      503      530      532
     1601       84       83       76       86      528      511      512      530
     1602       26       86       76       25      382      512      379      376
     1603       85       86       26       69      532      382      381      493
     1604       69       68       73       85      490      491      504      493
     1605       81       80       83       84      521      523      528      525
     1606       81       84       73       78      525      503      502      518
     1607       82       77       83       80      514      515      523      522
     1608       75       82       80       37      509      522      429      428
     1609       72       76       83       77      499      511      515      500
     1610       15       44       59       33      333      442      412      331
     1611       16       45       59       44      337      445      442      336
     1612       65       82       75       22      484      509      366      365
     1613       23       77       82       65      371      514      484      370
     1614       10       60       58       20      308      474      356      306
     1615       58       60       29       35      474      397      394      419
     1616       78       79       74       81      517      506      507      518
     1617       36       80       81       74      424      521      507      423
! ... 89 like lines cut
secnum,1    ! reset the section ID to default
MAT,5 $ TYPE,5 $ REAL,5 $ SECNUM,5 $ ESYS,0
eblock,11,COMPACT,,108
(11i9)
     1706       71       75       37       37      497      428       37      427
     1707       32       33       38       38      407      411       38      408
     1708       85       73       84       86      504      503      530      532
     1709       84       83       76       86      528      511      512      530
     1710       26       86       76       25      382      512      379      376
     1711       85       86       26       69      532      382      381      493
     1712       69       68       73       85      490      491      504      493
     1713       81       80       83       84      521      523      528      525
     1714       81       84       73       78      525      503      502      518
     1715       82       77       83       80      514      515      523      522
     1716       75       82       80       37      509      522      429      428
     1717       72       76       83       77      499      511      515      500
     1718       15       44       59       33      333      442      412      331
     1719       16       45       59       44      337      445      442      336
     1720       65       82       75       22      484      509      366      365
     1721       23       77       82       65      371      514      484      370
     1722       10       60       58       20      308      474      356      306
     1723       58       60       29       35      474      397      394      419
     1724       78       79       74       81      517      506      507      518
     1725       36       80       81       74      424      521      507      423
! ... 89 like lines cut
secnum,1    ! reset the section ID to default
MAT,5 $ TYPE,5 $ REAL,6 $ SECNUM,5 $ ESYS,0
eblock,11,COMPACT,,70
(11i9)
     1814     2844     2845     2838     2837     3504     3493     3489     3490
     1815     2851     2852     2845     2844     3519     3508     3504     3505
     1816     2858     2859     2852     2851     3534     3523     3519     3520
     1817     2865     2866     2859     2858     3549     3538     3534     3535
     1818     2872     2873     2866     2865     3564     3553     3549     3550
     1819     2900     2901     2894     2893     3624     3613     3609     3610
     1820     2907     2908     2901     2900     3639     3628     3624     3625
     1821     2914     2915     2908     2907     3654     3643     3639     3640
     1822     2921     2922     2915     2914     3669     3658     3654     3655
     1823     2928     2929     2922     2921     3684     3673     3669     3670
     1824     2845     2846     2839     2838     3507     3495     3492     3493
     1825     2852     2853     2846     2845     3522     3510     3507     3508
     1826     2859     2860     2853     2852     3537     3525     3522     3523
     1827     2866     2867     2860     2859     3552     3540     3537     3538
     1828     2873     2874     2867     2866     3567     3555     3552     3553
     1829     2880     2881     2874     2873     3582     3570     3567     3568
     1830     2894     2895     2888     2887     3612     3600     3597     3598
     1831     2901     2902     2895     2894     3627     3615     3612     3613
     1832     2908     2909     2902     2901     3642     3630     3627     3628
     1833     2915     2916     2909     2908     3657     3645     3642     3643
! ... 51 like lines cut
secnum,1    ! reset the section ID to default
MAT,6 $ TYPE,6 $ REAL,5 $ SECNUM,6 $ ESYS,0
eblock,11,COMPACT,,70
(11i9)
     1884     2844     2845     2838     2837     3504     3493     3489     3490
     1885     2851     2852     2845     2844     3519     3508     3504     3505
     1886     2858     2859     2852     2851     3534     3523     3519     3520
     1887     2865     2866     2859     2858     3549     3538     3534     3535
     1888     2872     2873     2866     2865     3564     3553     3549     3550
     1889     2900     2901     2894     2893     3624     3613     3609     3610
     1890     2907     2908     2901     2900     3639     3628     3624     3625
     1891     2914     2915     2908     2907     3654     3643     3639     3640
     1892     2921     2922     2915     2914     3669     3658     3654     3655
     1893     2928     2929     2922     2921     3684     3673     3669     3670
     1894     2845     2846     2839     2838     3507     3495     3492     3493
     1895     2852     2853     2846     2845     3522     3510     3507     3508
     1896     2859     2860     2853     2852     3537     3525     3522     3523
     1897     2866     2867     2860     2859     3552     3540     3537     3538
     1898     2873     2874     2867     2866     3567     3555     3552     3553
     1899     2880     2881     2874     2873     3582     3570     3567     3568
     1900     2894     2895     2888     2887     3612     3600     3597     3598
     1901     2901     2902     2895     2894     3627     3615     3612     3613
     1902     2908     2909     2902     2901     3642     3630     3627     3628
     1903     2915     2916     2909     2908     3657     3645     3642     3643
! ... 51 like lines cut
secnum,1    ! reset the section ID to default
keyo,cid,8,2               ! auto create asymmetric contact (from Program Controlled setting)
keyo,cid,10,0              ! adjust contact stiffness each NR iteration (from Program Controlled setting)
keyo,cid,12,5              ! bonded always
keyo,cid,18,1              ! small sliding turned on by application
keyo,cid,2,0               ! augmented Lagrange (from Program Controlled setting)
keyo,cid,4,0               ! on Gauss point (from Program Controlled setting)
keyo,cid,9,1               ! ignore initial gaps/penetration
keyo,cid,7,0               ! No Prediction
rmod,tid,3,10.      ! FKN
rmod,tid,5,0.       ! ICONT
rmod,tid,6,0.       ! PINB
rmod,tid,10,0.      ! CNOF
rmod,tid,12,0.      ! FKT
rmod,tid,36,608     ! WB DSID
rmod,cid,3,10.      ! FKN
rmod,cid,5,0.       ! ICONT
rmod,cid,6,0.       ! PINB
rmod,cid,10,0.      ! CNOF
rmod,cid,12,0.      ! FKT
rmod,cid,36,608     ! WB DSID
/com,*********** Create Contact "Contact Region 2" ***********
/com,            Real Constant Set For Above Contact Is 8 & 7 
*set,tid,8
*set,cid,7
r,tid
r,cid
et,tid,170
et,cid,174
MAT,8 $ TYPE,8 $ REAL,8 $ SECNUM,8 $ ESYS,0
eblock,11,COMPACT,,60
(11i9)
     1954     1125      996     1097     1111     1617     1616     1836     1853
     1955      996      992     1098     1097     1607     1608     1835     1616
     1956      992      988     1099     1098     1598     1599     1837     1608
     1957      988      984     1100     1099     1589     1590     1838     1599
     1958      984      980     1101     1100     1580     1581     1839     1590
     1959      980      976     1102     1101     1571     1572     1840     1581
     1960      976      972     1103     1102     1562     1563     1841     1572
     1961      972      968     1104     1103     1553     1554     1842     1563
     1962      968      964     1105     1104     1544     1545     1843     1554
     1963      964      960     1106     1105     1535     1536     1844     1545
     1964      960      956     1107     1106     1525     1526     1845     1536
     1965      956     1173     1108     1107     1527     1848     1846     1526
     1966     1124      995      996     1125     1615     1614     1617     1876
     1967      995      991      992      996     1606     1605     1607     1614
     1968      991      987      988      992     1597     1596     1598     1605
     1969      987      983      984      988     1588     1587     1589     1596
     1970      983      979      980      984     1579     1578     1580     1587
     1971      979      975      976      980     1570     1569     1571     1578
     1972      975      971      972      976     1561     1560     1562     1569
     1973      971      967      968      972     1552     1551     1553     1560
! ... 41 like lines cut
secnum,1    ! reset the section ID to default
MAT,7 $ TYPE,7 $ REAL,7 $ SECNUM,7 $ ESYS,0
eblock,11,COMPACT,,60
(11i9)
     2014     1125      996     1097     1111     1617     1616     1836     1853
     2015      996      992     1098     1097     1607     1608     1835     1616
     2016      992      988     1099     1098     1598     1599     1837     1608
     2017      988      984     1100     1099     1589     1590     1838     1599
     2018      984      980     1101     1100     1580     1581     1839     1590
     2019      980      976     1102     1101     1571     1572     1840     1581
     2020      976      972     1103     1102     1562     1563     1841     1572
     2021      972      968     1104     1103     1553     1554     1842     1563
     2022      968      964     1105     1104     1544     1545     1843     1554
     2023      964      960     1106     1105     1535     1536     1844     1545
     2024      960      956     1107     1106     1525     1526     1845     1536
     2025      956     1173     1108     1107     1527     1848     1846     1526
     2026     1124      995      996     1125     1615     1614     1617     1876
     2027      995      991      992      996     1606     1605     1607     1614
     2028      991      987      988      992     1597     1596     1598     1605
     2029      987      983      984      988     1588     1587     1589     1596
     2030      983      979      980      984     1579     1578     1580     1587
     2031      979      975      976      980     1570     1569     1571     1578
     2032      975      971      972      976     1561     1560     1562     1569
     2033      971      967      968      972     1552     1551     1553     1560
! ... 41 like lines cut
secnum,1    ! reset the section ID to default
MAT,7 $ TYPE,7 $ REAL,8 $ SECNUM,7 $ ESYS,0
eblock,11,COMPACT,,24
(11i9)
     2074     2724     2717     3039     3040     3112     3114     3882     3136
     2075     2717     2710     3038     3039     3089     3092     3881     3114
     2076     2710     3036     3037     3038     3091     3879     3880     3092
     2077     2723     2716     2717     2724     3110     3109     3112     3131
     2078     2716     2709     2710     2717     3086     3085     3089     3109
     2079     2709     3035     3036     2710     3088     3878     3091     3085
     2080     2722     2715     2716     2723     3107     3106     3110     3128
     2081     2715     2708     2709     2716     3082     3081     3086     3106
     2082     2708     3034     3035     2709     3084     3877     3088     3081
     2083     2721     2714     2715     2722     3104     3103     3107     3125
     2084     2714     2707     2708     2715     3078     3077     3082     3103
     2085     2707     3033     3034     2708     3080     3876     3084     3077
     2086     2720     2713     2714     2721     3101     3100     3104     3122
     2087     2713     2706     2707     2714     3074     3073     3078     3100
     2088     2706     3032     3033     2707     3076     3875     3080     3073
     2089     2719     2712     2713     2720     3098     3097     3101     3119
     2090     2712     2705     2706     2713     3070     3069     3074     3097
     2091     2705     3031     3032     2706     3072     3874     3076     3069
     2092     2718     2711     2712     2719     3094     3093     3098     3115
     2093     2711     2704     2705     2712     3065     3064     3070     3093
! ... 5 like lines cut
secnum,1    ! reset the section ID to default
MAT,8 $ TYPE,8 $ REAL,7 $ SECNUM,8 $ ESYS,0
eblock,11,COMPACT,,24
(11i9)
     2098     2724     2717     3039     3040     3112     3114     3882     3136
     2099     2717     2710     3038     3039     3089     3092     3881     3114
     2100     2710     3036     3037     3038     3091     3879     3880     3092
     2101     2723     2716     2717     2724     3110     3109     3112     3131
     2102     2716     2709     2710     2717     3086     3085     3089     3109
     2103     2709     3035     3036     2710     3088     3878     3091     3085
     2104     2722     2715     2716     2723     3107     3106     3110     3128
     2105     2715     2708     2709     2716     3082     3081     3086     3106
     2106     2708     3034     3035     2709     3084     3877     3088     3081
     2107     2721     2714     2715     2722     3104     3103     3107     3125
     2108     2714     2707     2708     2715     3078     3077     3082     3103
     2109     2707     3033     3034     2708     3080     3876     3084     3077
     2110     2720     2713     2714     2721     3101     3100     3104     3122
     2111     2713     2706     2707     2714     3074     3073     3078     3100
     2112     2706     3032     3033     2707     3076     3875     3080     3073
     2113     2719     2712     2713     2720     3098     3097     3101     3119
     2114     2712     2705     2706     2713     3070     3069     3074     3097
     2115     2705     3031     3032     2706     3072     3874     3076     3069
     2116     2718     2711     2712     2719     3094     3093     3098     3115
     2117     2711     2704     2705     2712     3065     3064     3070     3093
! ... 5 like lines cut
secnum,1    ! reset the section ID to default
keyo,cid,8,2               ! auto create asymmetric contact (from Program Controlled setting)
keyo,cid,10,0              ! adjust contact stiffness each NR iteration (from Program Controlled setting)
keyo,cid,12,5              ! bonded always
keyo,cid,18,1              ! small sliding turned on by application
keyo,cid,2,0               ! augmented Lagrange (from Program Controlled setting)
keyo,cid,4,0               ! on Gauss point (from Program Controlled setting)
keyo,cid,9,1               ! ignore initial gaps/penetration
keyo,cid,7,0               ! No Prediction
rmod,tid,3,10.      ! FKN
rmod,tid,5,0.       ! ICONT
rmod,tid,6,0.       ! PINB
rmod,tid,10,0.      ! CNOF
rmod,tid,12,0.      ! FKT
rmod,tid,36,611     ! WB DSID
rmod,cid,3,10.      ! FKN
rmod,cid,5,0.       ! ICONT
rmod,cid,6,0.       ! PINB
rmod,cid,10,0.      ! CNOF
rmod,cid,12,0.      ! FKT
rmod,cid,36,611     ! WB DSID
/com,*********** Create Contact "Contact Region 3" ***********
/com,            Real Constant Set For Above Contact Is 10 & 9 
*set,tid,10
*set,cid,9
r,tid
r,cid
et,tid,170
et,cid,174
MAT,10 $ TYPE,10 $ REAL,10 $ SECNUM,10 $ ESYS,0
eblock,11,COMPACT,,91
(11i9)
     2122     1972     2001     1973     1973     2253     2256     1973     2251
     2123     2009     1982     1981     1981     2296     2290     1981     2293
     2124     2023     2014     2022     2021     2382     2381     2396     2397
     2125     1974     2015     2014     2023     2261     2379     2382     2262
     2126     2026     1990     1961     2027     2326     2197     2198     2404
     2127     2158     2027     1961     2159     2407     2198     2200     2679
     2128     2157     1962     2027     2158     2205     2203     2407     2678
     2129     1962     2009     2026     2027     2202     2371     2404     2203
     2130     1981     1990     2026     2009     2292     2326     2371     2293
     2131     1990     1981     1983     2025     2292     2291     2301     2325
     2132     1984     2025     1983     2011     2306     2301     2300     2304
     2133     1984     1979     1980     2025     2283     2282     2288     2306
     2134     1980     1961     1990     2025     2195     2197     2325     2288
     2135     2023     2021     1971     2024     2397     2248     2249     2400
     2136     2002     2024     1971     1973     2356     2249     2246     2257
     2137     2002     2017     2023     2024     2355     2389     2400     2356
     2138     1974     2023     2017     2003     2262     2389     2359     2260
     2139     2014     1970     1999     2022     2243     2242     2347     2381
     2140     1999     2016     2021     2022     2346     2386     2396     2347
     2141     1971     2021     2016     2000     2248     2386     2350     2247
! ... 72 like lines cut
secnum,1    ! reset the section ID to default
MAT,9 $ TYPE,9 $ REAL,9 $ SECNUM,9 $ ESYS,0
eblock,11,COMPACT,,91
(11i9)
     2213     1972     2001     1973     1973     2253     2256     1973     2251
     2214     2009     1982     1981     1981     2296     2290     1981     2293
     2215     2023     2014     2022     2021     2382     2381     2396     2397
     2216     1974     2015     2014     2023     2261     2379     2382     2262
     2217     2026     1990     1961     2027     2326     2197     2198     2404
     2218     2158     2027     1961     2159     2407     2198     2200     2679
     2219     2157     1962     2027     2158     2205     2203     2407     2678
     2220     1962     2009     2026     2027     2202     2371     2404     2203
     2221     1981     1990     2026     2009     2292     2326     2371     2293
     2222     1990     1981     1983     2025     2292     2291     2301     2325
     2223     1984     2025     1983     2011     2306     2301     2300     2304
     2224     1984     1979     1980     2025     2283     2282     2288     2306
     2225     1980     1961     1990     2025     2195     2197     2325     2288
     2226     2023     2021     1971     2024     2397     2248     2249     2400
     2227     2002     2024     1971     1973     2356     2249     2246     2257
     2228     2002     2017     2023     2024     2355     2389     2400     2356
     2229     1974     2023     2017     2003     2262     2389     2359     2260
     2230     2014     1970     1999     2022     2243     2242     2347     2381
     2231     1999     2016     2021     2022     2346     2386     2396     2347
     2232     1971     2021     2016     2000     2248     2386     2350     2247
! ... 72 like lines cut
secnum,1    ! reset the section ID to default
MAT,9 $ TYPE,9 $ REAL,10 $ SECNUM,9 $ ESYS,0
eblock,11,COMPACT,,70
(11i9)
     2304     2821     2814     2815     2822     3418     3417     3420     3439
     2305     2814     2807     2808     2815     3396     3395     3398     3417
     2306     2807     2800     2801     2808     3374     3373     3376     3395
     2307     2800     2793     2794     2801     3352     3351     3354     3373
     2308     2793     2786     2787     2794     3330     3329     3332     3351
     2309     2765     2758     2759     2766     3242     3241     3244     3263
     2310     2758     2751     2752     2759     3220     3219     3222     3241
     2311     2751     2744     2745     2752     3198     3197     3200     3219
     2312     2744     2737     2738     2745     3176     3175     3178     3197
     2313     2737     2730     2731     2738     3154     3153     3156     3175
     2314     2820     2813     2814     2821     3415     3414     3418     3436
     2315     2813     2806     2807     2814     3393     3392     3396     3414
     2316     2806     2799     2800     2807     3371     3370     3374     3392
     2317     2799     2792     2793     2800     3349     3348     3352     3370
     2318     2792     2785     2786     2793     3327     3326     3330     3348
     2319     2785     2778     2779     2786     3305     3304     3308     3326
     2320     2771     2764     2765     2772     3261     3260     3264     3282
     2321     2764     2757     2758     2765     3239     3238     3242     3260
     2322     2757     2750     2751     2758     3217     3216     3220     3238
     2323     2750     2743     2744     2751     3195     3194     3198     3216
! ... 51 like lines cut
secnum,1    ! reset the section ID to default
MAT,10 $ TYPE,10 $ REAL,9 $ SECNUM,10 $ ESYS,0
eblock,11,COMPACT,,70
(11i9)
     2374     2821     2814     2815     2822     3418     3417     3420     3439
     2375     2814     2807     2808     2815     3396     3395     3398     3417
     2376     2807     2800     2801     2808     3374     3373     3376     3395
     2377     2800     2793     2794     2801     3352     3351     3354     3373
     2378     2793     2786     2787     2794     3330     3329     3332     3351
     2379     2765     2758     2759     2766     3242     3241     3244     3263
     2380     2758     2751     2752     2759     3220     3219     3222     3241
     2381     2751     2744     2745     2752     3198     3197     3200     3219
     2382     2744     2737     2738     2745     3176     3175     3178     3197
     2383     2737     2730     2731     2738     3154     3153     3156     3175
     2384     2820     2813     2814     2821     3415     3414     3418     3436
     2385     2813     2806     2807     2814     3393     3392     3396     3414
     2386     2806     2799     2800     2807     3371     3370     3374     3392
     2387     2799     2792     2793     2800     3349     3348     3352     3370
     2388     2792     2785     2786     2793     3327     3326     3330     3348
     2389     2785     2778     2779     2786     3305     3304     3308     3326
     2390     2771     2764     2765     2772     3261     3260     3264     3282
     2391     2764     2757     2758     2765     3239     3238     3242     3260
     2392     2757     2750     2751     2758     3217     3216     3220     3238
     2393     2750     2743     2744     2751     3195     3194     3198     3216
! ... 51 like lines cut
secnum,1    ! reset the section ID to default
keyo,cid,8,2               ! auto create asymmetric contact (from Program Controlled setting)
keyo,cid,10,0              ! adjust contact stiffness each NR iteration (from Program Controlled setting)
keyo,cid,12,5              ! bonded always
keyo,cid,18,1              ! small sliding turned on by application
keyo,cid,2,0               ! augmented Lagrange (from Program Controlled setting)
keyo,cid,4,0               ! on Gauss point (from Program Controlled setting)
keyo,cid,9,1               ! ignore initial gaps/penetration
keyo,cid,7,0               ! No Prediction
rmod,tid,3,10.      ! FKN
rmod,tid,5,0.       ! ICONT
rmod,tid,6,0.       ! PINB
rmod,tid,10,0.      ! CNOF
rmod,tid,12,0.      ! FKT
rmod,tid,36,614     ! WB DSID
rmod,cid,3,10.      ! FKN
rmod,cid,5,0.       ! ICONT
rmod,cid,6,0.       ! PINB
rmod,cid,10,0.      ! CNOF
rmod,cid,12,0.      ! FKT
rmod,cid,36,614     ! WB DSID
nsel,all
esel,all
/wb,contact,end            !  done creating contacts
/com,*********** Send Named Selection as Element Component ***********
esel,s,type,,1
cm,SELECTION,elem
esel,all
/com,*********** Send Named Selection as Element Component ***********
esel,s,type,,1
esel,a,type,,3
cm,SELECTION1,elem
esel,all
/golist
/wb,load,start             !  starting to send loads
/com,*********** Fixed Supports ***********
CMBLOCK,_FIXEDSU,NODE,       13
(8i10)
      2956     -2963      3009      3028      3056     -3063      3744     -3758
      3760      3851      3871      3899     -3905
cmsel,s,_FIXEDSU
d,all,all
nsel,all
/gst,on,on
fini
*get,_numnode,node,0,count
*get,_numelem,elem,0,count
*get, _MAXELEMNUM, elem, 0, NUM, MAX
*get, _MAXNODENUM, node, 0, NUM, MAX
*get, _MAXELEMTYPE, etyp, 0, NUM, MAX
*get, _MAXREALCONST, rcon, 0, NUM, MAX
/go
/wb,load,end               !  done creating loads
/com,--- Number of total nodes = %_numnode%
/com,--- Number of contact elements = 846
/com,--- Number of spring elements = 0
/com,--- Number of bearing elements = 0
/com,--- Number of solid elements = 531
/com,--- Number of condensed parts = 0
/com,--- Number of total elements = %_numelem%
*get,_wallbsol,active,,time,wall
/solu
antype,2                   ! modal analysis
_thickRatio=0.25    ! Ratio of thick parts in the model
thexpand,off     ! ignore thermal strains
modopt,lanb,3
outres,erase
outres,all,none
outres,nsol,all
mxpand                    ! default expand in case of complex solution
dmpopt,esav,no
dmpopt,emat,no
dmpopt,full,no
! *********** WB SOLVE COMMAND ***********
! check interactive state
*get,ANSINTER_,active,,int
*if,ANSINTER_,ne,0,then
/eof
*endif
solve
/com *************** Write FE CONNECTORS ********* 
CEWRITE,file,ce,,INTE
*get,_nmodalsolproc,active,0,numcpu
fini
/nopr
*get,_numnode,node,0,count
*get,_numelem,elem,0,count
*get, _MAXELEMNUM, elem, 0, NUM, MAX
*get, _MAXNODENUM, node, 0, NUM, MAX,,,INTERNAL
*get, _MAXELEMTYPE, etyp, 0, NUM, MAX
*get, _MAXREALCONST, rcon, 0, NUM, MAX
*get,_NSOLTHREADS,active,0,ntfs
*get,_NSOLPROCESSES,active,0,npfs
/gopr
*get,_wallasol,active,,time,wall
/post1
/nopr
*dim,_direction,CHAR,6,1
_direction(1) = 'X'
_direction(2) = 'Y'
_direction(3) = 'Z'
_direction(4) = 'ROTX'
_direction(5) = 'ROTY'
_direction(6) = 'ROTZ'
*get,_lastLS,active,0,set,LSTP
*get,_beginset,active,0,set,nset,first,_lastLS
*get,_endset,active,0,set,nset,last,_lastLS
_nummodes = 0
*if,_endset,gt,0,then
_nummodes = _endset - _beginset + 1
*endif
*do,i_mode,1,_nummodes
   *do,j_component,1,6
			*get,PFACT_%i_mode%_%j_component%,MODE,%i_mode%,PFACT,,DIREC,_direction(%j_component%)
   *enddo
*enddo
*dim,_tmdirection,CHAR,6,1
_tmdirection(1) = 'X'
_tmdirection(2) = 'Y'
_tmdirection(3) = 'Z'
_tmdirection(4) = 'X'
_tmdirection(5) = 'Y'
_tmdirection(6) = 'Z'
*do,j_component,1,6
    *if,j_component,gt,3,then
        *get,TOTALMASS_%j_component%,ELEM,0,IOR,_tmdirection(%j_component%)
    *else
        *get,TOTALMASS_%j_component%,ELEM,0,MTOT,_tmdirection(%j_component%)
    *endif
*enddo
/gopr
xmlo,ENCODING,ISO-8859-1
xmlo,parm
/xml,parm,xml
fini
/gopr
*get,_walldone,active,,time,wall
_preptime=(_wallbsol-_wallstrt)*3600
_solvtime=(_wallasol-_wallbsol)*3600
_posttime=(_walldone-_wallasol)*3600
_totaltim=(_walldone-_wallstrt)*3600
*get,_dlbratio,active,0,solu,dlbr
*get,_combtime,active,0,solu,comb
*get,_ssmode,active,0,solu,ssmm
*get,_ndofs,active,0,solu,ndof
/fclean				!clean distributed files
/com,--- Total number of nodes = %_numnode%
/com,--- Total number of elements = %_numelem%
/com,--- Element load balance ratio = %_dlbratio%
/com,--- Time to combine distributed files = %_combtime%
/com,--- Sparse memory mode = %_ssmode%
/com,--- Number of DOF = %_ndofs%
/wb,file,end               ! done with WB generated input
